**.subckt opam_highpass
C1 vnmic vn2 4.7u m=1
V1 vnmic GND 0 AC 1
R1 vn2 n2 5k m=1
R2 n2 vout 5k m=1
V2 vcm GND 1.5
x1 vcm n2 GND vout opam
**** begin user architecture code



.CONTROL
SAVE ALL
OP
AC DEC 100 0.1 10e6
vdb(vout)
MEAS AC gain_db MAX vdb(vout) FROM=1 TO=10e6
print gain_db
write opam_highpass.raw
.endc


**** end user architecture code
**.ends

* expanding   symbol:  opam.sym # of pins=4

.subckt opam vip vim vom vop
*.iopin vop
*.iopin vom
*.iopin vim
*.iopin vip
E1 vop vom vip vim 1000
.ends

.GLOBAL GND
.end
